56955953
  -OEChem-03052405402D

 65 69  0     0  0  0  0  0  0999 V2000
    6.3301   -0.2500    0.0000 S   0  0  0  0  0  0  0  0  0  0  0  0
    5.3301   -0.2500    0.0000 O   0  0  0  0  0  0  0  0  0  0  0  0
    7.3301   -0.2500    0.0000 O   0  0  0  0  0  0  0  0  0  0  0  0
   10.6603    2.2500    0.0000 O   0  0  0  0  0  0  0  0  0  0  0  0
    2.0000   -4.7500    0.0000 O   0  0  0  0  0  0  0  0  0  0  0  0
    6.3301    0.7500    0.0000 N   0  0  0  0  0  0  0  0  0  0  0  0
    6.3301    2.7500    0.0000 N   0  0  0  0  0  0  0  0  0  0  0  0
    5.4641    4.2500    0.0000 N   0  0  0  0  0  0  0  0  0  0  0  0
    7.1962    5.2500    0.0000 N   0  0  0  0  0  0  0  0  0  0  0  0
    5.4641    1.2500    0.0000 C   0  0  0  0  0  0  0  0  0  0  0  0
    7.1962    1.2500    0.0000 C   0  0  0  0  0  0  0  0  0  0  0  0
    5.4641    2.2500    0.0000 C   0  0  0  0  0  0  0  0  0  0  0  0
    7.1962    2.2500    0.0000 C   0  0  0  0  0  0  0  0  0  0  0  0
    6.3301    3.7500    0.0000 C   0  0  0  0  0  0  0  0  0  0  0  0
    6.3301   -1.2500    0.0000 C   0  0  0  0  0  0  0  0  0  0  0  0
    7.1962    4.2500    0.0000 C   0  0  0  0  0  0  0  0  0  0  0  0
    5.4641   -1.7500    0.0000 C   0  0  0  0  0  0  0  0  0  0  0  0
    7.1962   -1.7500    0.0000 C   0  0  0  0  0  0  0  0  0  0  0  0
    5.4641   -2.7500    0.0000 C   0  0  0  0  0  0  0  0  0  0  0  0
    8.0622    3.7500    0.0000 C   0  0  0  0  0  0  0  0  0  0  0  0
    7.1962   -2.7500    0.0000 C   0  0  0  0  0  0  0  0  0  0  0  0
    6.3301   -3.2500    0.0000 C   0  0  0  0  0  0  0  0  0  0  0  0
    5.4641    5.2500    0.0000 C   0  0  0  0  0  0  0  0  0  0  0  0
    4.5981   -3.2500    0.0000 C   0  0  0  0  0  0  0  0  0  0  0  0
    6.3301    5.7500    0.0000 C   0  0  0  0  0  0  0  0  0  0  0  0
    8.9282    4.2500    0.0000 C   0  0  0  0  0  0  0  0  0  0  0  0
    8.0622    2.7500    0.0000 C   0  0  0  0  0  0  0  0  0  0  0  0
    4.5981   -4.2500    0.0000 C   0  0  0  0  0  0  0  0  0  0  0  0
    3.7320   -2.7500    0.0000 C   0  0  0  0  0  0  0  0  0  0  0  0
    9.7942    3.7500    0.0000 C   0  0  0  0  0  0  0  0  0  0  0  0
    8.9282    2.2500    0.0000 C   0  0  0  0  0  0  0  0  0  0  0  0
    9.7942    2.7500    0.0000 C   0  0  0  0  0  0  0  0  0  0  0  0
    3.7320   -4.7500    0.0000 C   0  0  0  0  0  0  0  0  0  0  0  0
    2.8660   -3.2500    0.0000 C   0  0  0  0  0  0  0  0  0  0  0  0
    2.8660   -4.2500    0.0000 C   0  0  0  0  0  0  0  0  0  0  0  0
   11.5263    2.7500    0.0000 C   0  0  0  0  0  0  0  0  0  0  0  0
    2.0000   -5.7500    0.0000 C   0  0  0  0  0  0  0  0  0  0  0  0
    4.8535    1.3577    0.0000 H   0  0  0  0  0  0  0  0  0  0  0  0
    5.2520    0.6674    0.0000 H   0  0  0  0  0  0  0  0  0  0  0  0
    7.4082    0.6674    0.0000 H   0  0  0  0  0  0  0  0  0  0  0  0
    7.8067    1.3577    0.0000 H   0  0  0  0  0  0  0  0  0  0  0  0
    5.2520    2.8326    0.0000 H   0  0  0  0  0  0  0  0  0  0  0  0
    4.8535    2.1423    0.0000 H   0  0  0  0  0  0  0  0  0  0  0  0
    7.8067    2.1423    0.0000 H   0  0  0  0  0  0  0  0  0  0  0  0
    7.4082    2.8326    0.0000 H   0  0  0  0  0  0  0  0  0  0  0  0
    4.9272   -1.4400    0.0000 H   0  0  0  0  0  0  0  0  0  0  0  0
    7.7331   -1.4400    0.0000 H   0  0  0  0  0  0  0  0  0  0  0  0
    7.7331   -3.0600    0.0000 H   0  0  0  0  0  0  0  0  0  0  0  0
    6.3301   -3.8700    0.0000 H   0  0  0  0  0  0  0  0  0  0  0  0
    4.9272    5.5600    0.0000 H   0  0  0  0  0  0  0  0  0  0  0  0
    6.3301    6.3700    0.0000 H   0  0  0  0  0  0  0  0  0  0  0  0
    8.9282    4.8700    0.0000 H   0  0  0  0  0  0  0  0  0  0  0  0
    7.5252    2.4400    0.0000 H   0  0  0  0  0  0  0  0  0  0  0  0
    5.1350   -4.5600    0.0000 H   0  0  0  0  0  0  0  0  0  0  0  0
    3.7320   -2.1300    0.0000 H   0  0  0  0  0  0  0  0  0  0  0  0
   10.3312    4.0600    0.0000 H   0  0  0  0  0  0  0  0  0  0  0  0
    8.9282    1.6300    0.0000 H   0  0  0  0  0  0  0  0  0  0  0  0
    3.7320   -5.3700    0.0000 H   0  0  0  0  0  0  0  0  0  0  0  0
    2.3291   -2.9400    0.0000 H   0  0  0  0  0  0  0  0  0  0  0  0
   11.8363    2.2131    0.0000 H   0  0  0  0  0  0  0  0  0  0  0  0
   12.0632    3.0600    0.0000 H   0  0  0  0  0  0  0  0  0  0  0  0
   11.2163    3.2869    0.0000 H   0  0  0  0  0  0  0  0  0  0  0  0
    1.3800   -5.7500    0.0000 H   0  0  0  0  0  0  0  0  0  0  0  0
    2.0000   -6.3700    0.0000 H   0  0  0  0  0  0  0  0  0  0  0  0
    2.6200   -5.7500    0.0000 H   0  0  0  0  0  0  0  0  0  0  0  0
  1  2  2  0  0  0  0
  1  3  2  0  0  0  0
  1  6  1  0  0  0  0
  1 15  1  0  0  0  0
  4 32  1  0  0  0  0
  4 36  1  0  0  0  0
  5 35  1  0  0  0  0
  5 37  1  0  0  0  0
  6 10  1  0  0  0  0
  6 11  1  0  0  0  0
  7 12  1  0  0  0  0
  7 13  1  0  0  0  0
  7 14  1  0  0  0  0
  8 14  2  0  0  0  0
  8 23  1  0  0  0  0
  9 16  2  0  0  0  0
  9 25  1  0  0  0  0
 10 12  1  0  0  0  0
 10 38  1  0  0  0  0
 10 39  1  0  0  0  0
 11 13  1  0  0  0  0
 11 40  1  0  0  0  0
 11 41  1  0  0  0  0
 12 42  1  0  0  0  0
 12 43  1  0  0  0  0
 13 44  1  0  0  0  0
 13 45  1  0  0  0  0
 14 16  1  0  0  0  0
 15 17  1  0  0  0  0
 15 18  2  0  0  0  0
 16 20  1  0  0  0  0
 17 19  2  0  0  0  0
 17 46  1  0  0  0  0
 18 21  1  0  0  0  0
 18 47  1  0  0  0  0
 19 22  1  0  0  0  0
 19 24  1  0  0  0  0
 20 26  2  0  0  0  0
 20 27  1  0  0  0  0
 21 22  2  0  0  0  0
 21 48  1  0  0  0  0
 22 49  1  0  0  0  0
 23 25  2  0  0  0  0
 23 50  1  0  0  0  0
 24 28  2  0  0  0  0
 24 29  1  0  0  0  0
 25 51  1  0  0  0  0
 26 30  1  0  0  0  0
 26 52  1  0  0  0  0
 27 31  2  0  0  0  0
 27 53  1  0  0  0  0
 28 33  1  0  0  0  0
 28 54  1  0  0  0  0
 29 34  2  0  0  0  0
 29 55  1  0  0  0  0
 30 32  2  0  0  0  0
 30 56  1  0  0  0  0
 31 32  1  0  0  0  0
 31 57  1  0  0  0  0
 33 35  2  0  0  0  0
 33 58  1  0  0  0  0
 34 35  1  0  0  0  0
 34 59  1  0  0  0  0
 36 60  1  0  0  0  0
 36 61  1  0  0  0  0
 36 62  1  0  0  0  0
 37 63  1  0  0  0  0
 37 64  1  0  0  0  0
 37 65  1  0  0  0  0
M  END
> <PUBCHEM_COMPOUND_CID>
56955953

> <PUBCHEM_COMPOUND_CANONICALIZED>
1

> <PUBCHEM_CACTVS_COMPLEXITY>
800

> <PUBCHEM_CACTVS_HBOND_ACCEPTOR>
8

> <PUBCHEM_CACTVS_HBOND_DONOR>
0

> <PUBCHEM_CACTVS_ROTATABLE_BOND>
7

> <PUBCHEM_CACTVS_SUBSKEYS>
AAADceB7uABAAAAAAAAAAAAAAAAAAAAAAAA8eMECAAAAAAAB1AAAHgQAQAAADAzB3gY/t5MIFAKgAzZnZHDCiD0xMiAJ2Dg+fJiMZuLEuRuUMChswBPI6CeQ0PMOoAAAgAAAAABAAAEAAAAAAAAAAAAAAA==

> <PUBCHEM_IUPAC_OPENEYE_NAME>
2-(4-methoxyphenyl)-3-[4-[3-(4-methoxyphenyl)phenyl]sulfonylpiperazin-1-yl]pyrazine

> <PUBCHEM_IUPAC_CAS_NAME>
2-(4-methoxyphenyl)-3-[4-[3-(4-methoxyphenyl)phenyl]sulfonyl-1-piperazinyl]pyrazine

> <PUBCHEM_IUPAC_NAME_MARKUP>
2-(4-methoxyphenyl)-3-[4-[3-(4-methoxyphenyl)phenyl]sulfonylpiperazin-1-yl]pyrazine

> <PUBCHEM_IUPAC_NAME>
2-(4-methoxyphenyl)-3-[4-[3-(4-methoxyphenyl)phenyl]sulfonylpiperazin-1-yl]pyrazine

> <PUBCHEM_IUPAC_SYSTEMATIC_NAME>
2-(4-methoxyphenyl)-3-[4-[3-(4-methoxyphenyl)phenyl]sulfonylpiperazin-1-yl]pyrazine

> <PUBCHEM_IUPAC_TRADITIONAL_NAME>
2-(4-methoxyphenyl)-3-[4-[3-(4-methoxyphenyl)phenyl]sulfonylpiperazino]pyrazine

> <PUBCHEM_IUPAC_INCHI>
InChI=1S/C28H28N4O4S/c1-35-24-10-6-21(7-11-24)23-4-3-5-26(20-23)37(33,34)32-18-16-31(17-19-32)28-27(29-14-15-30-28)22-8-12-25(36-2)13-9-22/h3-15,20H,16-19H2,1-2H3

> <PUBCHEM_IUPAC_INCHIKEY>
IQVDMFYVPSHFEP-UHFFFAOYSA-N

> <PUBCHEM_XLOGP3_AA>
4.1

> <PUBCHEM_EXACT_MASS>
516.18312656

> <PUBCHEM_MOLECULAR_FORMULA>
C28H28N4O4S

> <PUBCHEM_MOLECULAR_WEIGHT>
516.6

> <PUBCHEM_OPENEYE_CAN_SMILES>
COC1=CC=C(C=C1)C2=CC(=CC=C2)S(=O)(=O)N3CCN(CC3)C4=NC=CN=C4C5=CC=C(C=C5)OC

> <PUBCHEM_OPENEYE_ISO_SMILES>
COC1=CC=C(C=C1)C2=CC(=CC=C2)S(=O)(=O)N3CCN(CC3)C4=NC=CN=C4C5=CC=C(C=C5)OC

> <PUBCHEM_CACTVS_TPSA>
93.2

> <PUBCHEM_MONOISOTOPIC_WEIGHT>
516.18312656

> <PUBCHEM_TOTAL_CHARGE>
0

> <PUBCHEM_HEAVY_ATOM_COUNT>
37

> <PUBCHEM_ATOM_DEF_STEREO_COUNT>
0

> <PUBCHEM_ATOM_UDEF_STEREO_COUNT>
0

> <PUBCHEM_BOND_DEF_STEREO_COUNT>
0

> <PUBCHEM_BOND_UDEF_STEREO_COUNT>
0

> <PUBCHEM_ISOTOPIC_ATOM_COUNT>
0

> <PUBCHEM_COMPONENT_COUNT>
1

> <PUBCHEM_CACTVS_TAUTO_COUNT>
-1

> <PUBCHEM_COORDINATE_TYPE>
1
5
255

> <PUBCHEM_BONDANNOTATIONS>
14  16  8
15  17  8
15  18  8
17  19  8
18  21  8
19  22  8
20  26  8
20  27  8
21  22  8
23  25  8
24  28  8
24  29  8
26  30  8
27  31  8
28  33  8
29  34  8
30  32  8
31  32  8
33  35  8
34  35  8
8  14  8
8  23  8
9  16  8
9  25  8

$$$$
